Version 4
SHEET 1 880 680
WIRE 192 144 -224 144
WIRE 560 144 288 144
WIRE 560 176 560 144
WIRE -224 192 -224 144
WIRE 272 240 272 192
WIRE -224 352 -224 272
WIRE 272 352 272 320
WIRE 272 352 -224 352
WIRE 560 352 560 256
WIRE 560 352 272 352
WIRE 272 384 272 352
FLAG 272 384 0
SYMBOL pmos 192 192 R270
SYMATTR InstName M1
SYMATTR Value IRF7204
SYMBOL res 256 224 R0
SYMATTR InstName R1
SYMATTR Value 100k
SYMBOL res 544 160 R0
SYMATTR InstName R2
SYMATTR Value 100
SYMBOL voltage -224 176 R0
WINDOW 123 0 0 Left 2
WINDOW 39 0 0 Left 2
SYMATTR InstName V1
SYMATTR Value PULSE(0 12 0 1m 1m 100m 200m)
TEXT -34 408 Left 2 !.tran 1
