Version 4
SHEET 1 880 680
WIRE 176 64 96 64
WIRE 304 64 256 64
WIRE 96 128 96 64
WIRE 304 128 304 64
WIRE 96 224 96 208
WIRE 304 224 304 192
FLAG 96 224 0
FLAG 304 224 0
SYMBOL voltage 96 112 R0
WINDOW 123 0 0 Left 2
WINDOW 39 0 0 Left 2
SYMATTR InstName V1
SYMATTR Value PULSE(0 5 0.1e-9 1e-12 1e-12 1e-9 2e-9)
SYMBOL res 272 48 R90
WINDOW 0 0 56 VBottom 2
WINDOW 3 32 56 VTop 2
SYMATTR InstName R1
SYMATTR Value 22
SYMBOL cap 288 128 R0
SYMATTR InstName C1
SYMATTR Value 1e-12
TEXT 62 248 Left 2 !.tran 3.2e-9
